Test cases for text_indentation function

================================

This python script defines a text-indentation function

Usage
=====

Text is printed with two new lines after each of the characters ``.``, ``?``,
and ``:``.

::

    >>> text_indentation = __import__('5-text_indentation').text_indentation
    >>> text_indentation("Hi?")
    Hi?
    <BLANKLINE>

No spaces are printed at the beginning of a line.

::

    >>> text_indentation("   Hello there.")
    Hello there.
    <BLANKLINE>

::

    >>> text_indentation("          ")

Similarly, no spaces are printed at the end of each printed line.

::

    >>> text_indentation("Hi.   ")
    Hi.
    <BLANKLINE>

::

    >>> text_indentation("    Wait a minute.    This is chaotic.   ")
    Wait a minute.
    <BLANKLINE>
    This is chaotic.
    <BLANKLINE>

New lines are only printed for the characters ``.``, ``?``, and ``:`` -
text not ending with one of these characters is not ended with a new line.

::

    >>> text_indentation("To convey proper grammar, a comma must be included")
    To convey proper grammar, a comma must be included

New lines within a string are printed as normal.

::

    >>> text_indentation("Let's take a pause here and start:\nnewline.")
    Let's take a pause here and start:
    <BLANKLINE>
    <BLANKLINE>
    newline.
    <BLANKLINE>

::

    >>> text_indentation("\n\n\n Here we've printed three new lines.")
    <BLANKLINE>
    <BLANKLINE>
    <BLANKLINE>
    Here we've printed three new lines.
    <BLANKLINE>

::
    >>> text_indentation("A discreet \n new line.")
    A discreet 
    new line.
    <BLANKLINE>

A combo example:

::

    >>> text_indentation("Lorem ipsum dolor sit amet, consectetur adipiscing "
    ... "elit. Quonam modo? Utrum igitur tibi litteram videor an totas paginas "
    ... "commovere? Non autem hoc: igitur ne illud quidem. Fortasse id optimum, "
    ... "sed ubi illud: Plus semper voluptatis? Teneo, inquit, finem illi videri "
    ... "nihil dolere. Transfer idem ad modestiam vel temperantiam, quae est "
    ... "moderatio cupiditatum rationi oboediens. Si id dicis, vicimus. Inde "
    ... "sermone vario sex illa a Dipylo stadia confecimus. Sin aliud quid "
    ... "voles, postea. Quae animi affectio suum cuique tribuens atque hanc, "
    ... "quam dico. Utinam quidem dicerent alium alio beatiorem! Iam ruinas "
    ... "videres") # doctest: +NORMALIZE_WHITESPACE
    Lorem ipsum dolor sit amet, consectetur adipiscing elit.
    <BLANKLINE>
    Quonam modo?
    <BLANKLINE>
    Utrum igitur tibi litteram videor an totas paginas commovere?
    <BLANKLINE>
    Non autem hoc:
    <BLANKLINE>
    igitur ne illud quidem.
    <BLANKLINE>
    Fortasse id optimum, sed ubi illud:
    <BLANKLINE>
    Plus semper voluptatis?
    <BLANKLINE>
    Teneo, inquit, finem illi videri nihil dolere.
    <BLANKLINE>
    Transfer idem ad modestiam vel temperantiam, 
    quae est moderatio cupiditatum rationi oboediens.
    <BLANKLINE>
    Si id dicis, vicimus.
    <BLANKLINE>
    Inde sermone vario sex illa a Dipylo stadia confecimus.
    <BLANKLINE>
    Sin aliud quid voles, postea.
    <BLANKLINE>
    Quae animi affectio suum cuique tribuens atque hanc, quam dico.
    <BLANKLINE>
    Utinam quidem dicerent alium alio beatiorem! Iam ruinas videres

Invalid Text
============

The paramter ``text`` must be a string. Otherwise, a TypeError is raised.

::

    >>> text_indentation(8)
    Traceback (most recent call last):
    TypeError: text must be a string

::

    >>> text_indentation({"three": 3, "four": 4})
    Traceback (most recent call last):
    TypeError: text must be a string

::

    >>> text_indentation(None)
    Traceback (most recent call last):
    TypeError: text must be a string
